<?xml version="1.0" encoding="UTF-8"?>
<net version="1.16" xmlns:xsi="http://www.w3.org/2001/XMLSchema-instance" xsi:noNamespaceSchemaLocation="http://sumo.dlr.de/xsd/net_file.xsd">

    <location netOffset="0.00,0.00" convBoundary="0.00,0.00,100.00,100.00" origBoundary="-10000000000.00,-10000000000.00,10000000000.00,10000000000.00" projParameter="!"/>

    <!-- Node definitions -->
    <node id="J1" x="10.0" y="50.0" type="priority"/>
    <node id="J2" x="90.0" y="50.0" type="priority"/>

    <!-- Edge definitions -->
    <edge id="E1" from="J1" to="J2" priority="-1">
        <lane id="E1_0" index="0" speed="13.89" length="80.00" shape="10.00,50.00 90.00,50.00"/>
    </edge>
    <edge id="E2" from="J2" to="J1" priority="-1">
        <lane id="E2_0" index="0" speed="13.89" length="80.00" shape="90.00,50.00 10.00,50.00"/>
    </edge>

    <!-- Connection definitions (usually auto-generated) -->
    <connection from="E1" to="E2" fromLane="0" toLane="0" via="J2_0" dir="s" state="M"/>
    <connection from="E2" to="E1" fromLane="0" toLane="0" via="J1_0" dir="s" state="M"/>


</net>